                                   MODFLOW 6
                U.S. GEOLOGICAL SURVEY MODULAR HYDROLOGIC MODEL
                          GROUNDWATER FLOW MODEL (GWF)
                            VERSION 6.2.1 02/18/2021

   MODFLOW 6 compiled Feb 18 2021 08:24:05 with IFORT compiler (ver. 19.10.2)

This software has been approved for release by the U.S. Geological 
Survey (USGS). Although the software has been subjected to rigorous 
review, the USGS reserves the right to update the software as needed 
pursuant to further analysis and review. No warranty, expressed or 
implied, is made by the USGS or the U.S. Government as to the 
functionality of the software and related material nor shall the 
fact of release constitute any such warranty. Furthermore, the 
software is released on condition that neither the USGS nor the U.S. 
Government shall be held liable for any damages resulting from its 
authorized or unauthorized use. Also refer to the USGS Water 
Resources Software User Rights Notice for complete use, copyright, 
and distribution information.


System command used to initiate simulation:
./models/mf6.exe

MODFLOW was compiled using uniform precision.

Real Variables
  KIND: 8
  TINY (smallest non-zero value):    2.225074-308
  HUGE (largest value):    1.797693+308
  PRECISION: 15
  BIT SIZE: 64

Integer Variables
  KIND: 4
  HUGE (largest value): 2147483647
  BIT SIZE: 32

Long Integer Variables
  KIND: 8
  HUGE (largest value): 9223372036854775807
  BIT SIZE: 64

Logical Variables
  KIND: 4
  BIT SIZE: 32
 

 OPENED mfsimple.disv
 FILE TYPE:DISV6                  UNIT 1005   STATUS:OLD                 
 FORMAT:FORMATTED              ACCESS:SEQUENTIAL          
 ACTION:READ                


 OPENED mfsimple.npf
 FILE TYPE:NPF6                   UNIT 1006   STATUS:OLD                 
 FORMAT:FORMATTED              ACCESS:SEQUENTIAL          
 ACTION:READ                


 OPENED mfsimple.ic
 FILE TYPE:IC6                    UNIT 1007   STATUS:OLD                 
 FORMAT:FORMATTED              ACCESS:SEQUENTIAL          
 ACTION:READ                


 OPENED mfsimple.chd
 FILE TYPE:CHD6                   UNIT 1008   STATUS:OLD                 
 FORMAT:FORMATTED              ACCESS:SEQUENTIAL          
 ACTION:READ                

 NAMEFILE OPTIONS:
    FLOWS WILL BE SAVED TO BUDGET FILE SPECIFIED IN OUTPUT CONTROL

 DISV -- VERTEX GRID DISCRETIZATION PACKAGE, VERSION 1 : 12/23/2015 - INPUT READ FROM UNIT 1005


 # File generated by Flopy version 3.3.3 on 04/26/2021 at 16:45:12.

 PROCESSING DISCRETIZATION OPTIONS
    MODEL LENGTH UNIT IS METERS
 END OF DISCRETIZATION OPTIONS

 PROCESSING DISCRETIZATION DIMENSIONS
   NLAY = 1
   NCPL = 767
   NVERT = 423
 END OF DISCRETIZATION DIMENSIONS

 PROCESSING GRIDDATA

 TOP ELEVATION OF LAYER 1 =   10.00000    

   MODEL LAYER BOTTOM EL. =   0.000000    
 END PROCESSING GRIDDATA

 PROCESSING VERTICES
   SUCCESSFULLY READ 423 (X,Y) COORDINATES
   MINIMUM X COORDINATE =     0.00000000000000    
   MAXIMUM X COORDINATE =     100.000000000000    
   MINIMUM Y COORDINATE =     0.00000000000000    
   MAXIMUM Y COORDINATE =     100.000000000000    
 END PROCESSING VERTICES

 PROCESSING CELL2D
   SUCCESSFULLY READ 767 CELL2D INFORMATION ENTRIES
   MINIMUM X CELL CENTER =     1.18074688000000    
   MAXIMUM X CELL CENTER =     98.9583333300000    
   MINIMUM Y CELL CENTER =     1.06064083000000    
   MAXIMUM Y CELL CENTER =     98.6949687700000    
   MAXIMUM NUMBER OF CELL2D VERTICES IS 3 FOR CELL 1
 END PROCESSING VERTICES

 NPF -- NODE PROPERTY FLOW PACKAGE, VERSION 1, 3/30/2015 INPUT READ FROM UNIT 1006


 # File generated by Flopy version 3.3.3 on 04/26/2021 at 16:45:12.
 PROCESSING NPF OPTIONS
 END OF NPF OPTIONS

 CHD   -- CHD PACKAGE, VERSION 8, 2/22/2014 INPUT READ FROM UNIT 1008
 # File generated by Flopy version 3.3.3 on 04/26/2021 at 16:45:12.

 PROCESSING CHD OPTIONS
 END OF CHD OPTIONS

 PROCESSING CHD DIMENSIONS
    MAXBOUND =      36
 END OF CHD DIMENSIONS

 IC -- INITIAL CONDITIONS PACKAGE, VERSION 8, 3/28/2015 INPUT READ FROM UNIT 1007
 # File generated by Flopy version 3.3.3 on 04/26/2021 at 16:45:12.
 PROCESSING GRIDDATA

     INITIAL HEAD =   10.00000    
 END PROCESSING GRIDDATA
 PROCESSING GRIDDATA

                ICELLTYPE = 0

                        K =  0.1000000E-03
 K33 not provided.  Assuming K33 = K.
 K22 not provided.  Assuming K22 = K.
 END PROCESSING GRIDDATA
    BINARY GRID INFORMATION WILL BE WRITTEN TO:
      UNIT NUMBER: 1010
      FILE NAME: C:\Users\miles\Documents\gitRepos\flopyVedo\working\mfsimple.disv.grb

 OPENED C:\Users\miles\Documents\gitRepos\flopyVedo\working\mfsimple.disv.grb
 FILE TYPE:DATA(BINARY)   UNIT 1010   STATUS:REPLACE             
 FORMAT:UNFORMATTED            ACCESS:STREAM              
 ACTION:READWRITE           

      THE LAST TIME STEP WILL BE PRINTED
      THE LAST TIME STEP WILL BE PRINTED

start timestep kper="1" kstp="1" mode="normal"

1
  HEAD IN LAYER   1 AT END OF TIME STEP   1 IN STRESS PERIOD    1
  ---------------------------------------------------------------------------

            1           2           3           4           5           6           7           8           9          10
           11          12          13          14          15          16          17          18          19          20
           21          22          23          24          25          26          27          28          29          30
           31          32          33          34          35          36          37          38          39          40
           41          42          43          44          45          46          47          48          49          50
           51          52          53          54          55          56          57          58          59          60
           61          62          63          64          65          66          67          68          69          70
           71          72          73          74          75          76          77          78          79          80
           81          82          83          84          85          86          87          88          89          90
           91          92          93          94          95          96          97          98          99         100
          101         102         103         104         105         106         107         108         109         110
          111         112         113         114         115         116         117         118         119         120
          121         122         123         124         125         126         127         128         129         130
          131         132         133         134         135         136         137         138         139         140
          141         142         143         144         145         146         147         148         149         150
          151         152         153         154         155         156         157         158         159         160
          161         162         163         164         165         166         167         168         169         170
          171         172         173         174         175         176         177         178         179         180
          181         182         183         184         185         186         187         188         189         190
          191         192         193         194         195         196         197         198         199         200
          201         202         203         204         205         206         207         208         209         210
          211         212         213         214         215         216         217         218         219         220
          221         222         223         224         225         226         227         228         229         230
          231         232         233         234         235         236         237         238         239         240
          241         242         243         244         245         246         247         248         249         250
          251         252         253         254         255         256         257         258         259         260
          261         262         263         264         265         266         267         268         269         270
          271         272         273         274         275         276         277         278         279         280
          281         282         283         284         285         286         287         288         289         290
          291         292         293         294         295         296         297         298         299         300
          301         302         303         304         305         306         307         308         309         310
          311         312         313         314         315         316         317         318         319         320
          321         322         323         324         325         326         327         328         329         330
          331         332         333         334         335         336         337         338         339         340
          341         342         343         344         345         346         347         348         349         350
          351         352         353         354         355         356         357         358         359         360
          361         362         363         364         365         366         367         368         369         370
          371         372         373         374         375         376         377         378         379         380
          381         382         383         384         385         386         387         388         389         390
          391         392         393         394         395         396         397         398         399         400
          401         402         403         404         405         406         407         408         409         410
          411         412         413         414         415         416         417         418         419         420
          421         422         423         424         425         426         427         428         429         430
          431         432         433         434         435         436         437         438         439         440
          441         442         443         444         445         446         447         448         449         450
          451         452         453         454         455         456         457         458         459         460
          461         462         463         464         465         466         467         468         469         470
          471         472         473         474         475         476         477         478         479         480
          481         482         483         484         485         486         487         488         489         490
          491         492         493         494         495         496         497         498         499         500
          501         502         503         504         505         506         507         508         509         510
          511         512         513         514         515         516         517         518         519         520
          521         522         523         524         525         526         527         528         529         530
          531         532         533         534         535         536         537         538         539         540
          541         542         543         544         545         546         547         548         549         550
          551         552         553         554         555         556         557         558         559         560
          561         562         563         564         565         566         567         568         569         570
          571         572         573         574         575         576         577         578         579         580
          581         582         583         584         585         586         587         588         589         590
          591         592         593         594         595         596         597         598         599         600
          601         602         603         604         605         606         607         608         609         610
          611         612         613         614         615         616         617         618         619         620
          621         622         623         624         625         626         627         628         629         630
          631         632         633         634         635         636         637         638         639         640
          641         642         643         644         645         646         647         648         649         650
          651         652         653         654         655         656         657         658         659         660
          661         662         663         664         665         666         667         668         669         670
          671         672         673         674         675         676         677         678         679         680
          681         682         683         684         685         686         687         688         689         690
          691         692         693         694         695         696         697         698         699         700
          701         702         703         704         705         706         707         708         709         710
          711         712         713         714         715         716         717         718         719         720
          721         722         723         724         725         726         727         728         729         730
          731         732         733         734         735         736         737         738         739         740
          741         742         743         744         745         746         747         748         749         750
          751         752         753         754         755         756         757         758         759         760
          761         762         763         764         765         766         767
 ........................................................................................................................
   1    26.36       27.15       24.84       26.71       27.73       30.00       27.51       24.64       27.20       28.67    
        24.20       20.99       21.24       22.63       27.16       27.18       29.48       27.64       24.13       26.05    
        27.86       29.17       28.46       27.30       26.85       24.97       25.17       26.48       26.07       27.36    
        26.78       28.13       26.39       29.21       28.91       27.21       27.73       27.39       26.65       27.93    
        28.12       26.64       28.61       26.90       28.54       28.33       27.80       30.00       28.35       28.00    
        28.73       28.23       27.01       28.66       25.88       27.32       27.43       26.92       27.20       26.91    
        26.57       27.08       26.58       26.41       27.93       27.26       27.97       27.63       27.80       28.38    
        29.81       28.31       26.13       24.90       28.32       29.56       28.95       29.08       29.45       30.00    
        29.26       29.29       29.81       30.00       28.44       30.00       29.25       29.35       29.00       29.55    
        28.84       29.87       29.50       27.53       28.16       28.95       29.54       29.75       29.40       29.07    
        27.87       28.64       28.60       29.07       30.00       28.36       28.13       27.82       29.05       28.98    
        28.64       28.85       26.99       27.88       28.15       27.60       28.42       28.04       26.71       26.28    
        26.95       26.79       26.47       26.33       26.11       27.35       26.38       25.43       26.59       27.08    
        26.62       26.02       26.56       26.11       25.31       25.41       25.62       26.01       25.96       25.91    
        24.72       25.90       25.88       25.60       25.03       25.10       25.04       23.94       25.61       25.33    
        24.97       25.81       25.30       24.59       24.75       24.41       24.88       24.71       24.50       24.00    
        25.62       25.19       24.01       23.20       25.82       26.15       25.36       26.81       25.70       25.82    
        25.39       26.12       25.15       25.90       26.51       26.77       24.41       23.82       24.86       25.38    
        24.72       24.33       23.97       22.57       23.31       24.23       23.74       24.44       23.44       23.51    
        23.57       26.27       26.93       24.26       23.84       23.07       23.76       21.90       22.89       23.45    
        22.93       22.73       23.41       29.80       29.21       28.89       29.85       28.57       29.00       29.48    
        30.00       30.00       29.46       29.46       29.81       27.63       28.01       27.28       27.32       26.17    
        29.08       27.73       28.47       28.52       27.89       25.59       25.51       24.17       24.31       23.32    
        23.29       23.56       24.35       24.33       24.56       24.17       24.06       24.74       25.36       25.21    
        24.11       25.39       23.71       22.99       24.86       24.40       24.45       24.88       24.02       23.17    
        23.90       24.70       22.77       23.50       23.43       21.55       22.97       23.80       22.71       23.53    
        23.01       21.36       22.42       23.04       22.50       23.62       23.30       22.90       23.06       23.80    
        23.21       23.57       22.61       22.32       21.78       22.53       22.34       22.36       22.05       21.11    
        21.69       21.63       21.97       22.03       20.79       22.15       20.55       22.22       21.72       21.26    
        20.00       21.22       20.85       22.65       21.81       21.96       21.06       21.03       20.64       20.61    
        21.64       21.52       21.26       21.35       20.97       28.93       29.51       29.67       29.88       23.03    
        24.24       23.24       22.83       21.85       22.54       23.41       23.89       21.61       23.45       23.34    
        23.72       22.32       22.88       23.87       25.14       21.32       22.06       21.15       21.03       20.46    
        20.79       20.51       20.24       20.15       20.00       20.14       22.14       20.00       22.32       22.18    
        22.76       21.34       21.57       20.71       21.51       20.00       20.20       22.48       20.55       21.07    
        21.21       20.49       21.76       20.65       20.00       20.00       20.17       21.36       22.24       21.90    
        22.36       21.08       21.66       20.00       21.64       21.02       20.90       20.48       21.50       21.92    
        22.50       21.57       22.27       23.82       23.80       23.99       23.45       22.49       22.68       23.09    
        22.93       24.34       26.00       24.44       24.66       23.55       24.53       23.46       24.69       24.24    
        23.91       23.27       23.85       24.17       24.80       22.62       23.55       24.19       24.16       24.34    
        24.72       24.58       24.78       23.25       23.09       22.88       23.01       22.83       22.93       22.75    
        22.12       23.29       23.73       27.88       25.78       25.05       24.57       22.38       21.67       23.25    
        23.40       24.22       23.98       24.85       22.75       24.97       22.81       22.05       23.18       22.40    
        24.88       22.99       23.38       21.06       22.42       22.08       22.64       22.71       22.48       22.10    
        21.47       23.34       24.79       22.44       21.88       21.56       22.04       23.70       24.20       23.90    
        23.88       22.28       21.90       20.00       20.74       20.00       20.18       20.70       20.49       20.00    
        28.11       25.05       27.19       21.05       22.44       20.20       20.18       21.10       20.57       21.14    
        20.20       20.00       20.92       20.00       20.67       21.95       21.20       21.93       21.72       20.44    
        20.15       20.86       20.54       20.00       20.69       21.21       21.44       26.00       26.57       25.33    
        26.54       22.35       22.18       21.16       21.34       21.46       21.91       20.69       20.64       21.89    
        21.60       20.16       20.49       21.57       20.15       20.47       20.83       20.00       20.93       24.37    
        25.52       24.55       25.19       25.83       26.43       24.87       23.88       24.57       24.21       24.69    
        25.43       25.98       25.48       25.85       27.37       25.08       26.83       25.78       26.45       26.39    
        25.96       26.67       27.69       26.40       27.00       26.69       27.03       23.68       24.31       23.38    
        23.67       27.82       24.26       27.09       27.18       26.58       23.92       24.51       23.99       27.00    
        27.18       26.21       26.92       26.69       25.56       27.19       25.90       20.55       22.05       21.36    
        20.78       20.37       20.00       20.93       21.38       20.10       20.84       26.47       26.11       24.87    
        25.18       25.56       25.25       26.23       26.46       25.82       26.01       26.81       26.29       26.89    
        26.49       27.49       25.99       27.03       28.03       27.07       27.48       27.67       27.54       28.68    
        27.34       27.55       27.34       28.36       27.64       27.78       27.82       27.97       28.30       27.57    
        23.64       23.18       22.68       23.67       20.67       20.14       20.53       20.43       20.16       26.22    
        26.98       25.69       25.40       26.67       25.61       25.61       26.63       25.32       24.92       26.34    
        25.60       25.11       25.17       26.45       26.11       25.08       25.72       24.77       25.41       28.03    
        28.37       27.51       28.21       27.16       26.96       30.00       29.01       28.17       28.35       22.82    
        23.10       21.78       22.45       20.85       22.13       22.06       21.79       23.04       21.83       22.85    
        23.39       20.48       22.66       20.00       28.09       27.96       27.58       28.39       27.19       27.47    
        28.01       28.84       29.02       29.56       28.11       28.49       29.79       29.80       28.37       28.92    
        28.57       29.83       30.00       28.69       28.55       28.63       27.93       29.58       28.43       28.45    
        28.52       29.12       28.84       30.00       29.20       29.81       29.00       28.86       29.01       29.31    
        21.80       21.20       20.56       20.11       20.60       21.34       20.00       20.35       21.25       21.60    
        29.88       21.14       28.70       29.80       29.29       29.38       29.41       29.53       30.00       28.92    
        30.00       29.42       29.36       29.43       29.55       28.93       29.19       29.77       29.82       28.28    
        28.90       29.37       28.56       27.79       28.35       28.46       28.02       27.55       28.00       29.47    
        29.39       29.81       29.24       29.30       30.00       29.06       29.53       29.70       29.73       30.00    
        20.83       20.00       21.37       20.19       20.84       20.10       20.00       20.38       29.87       30.00    
        30.00       28.82       29.21       29.01       29.10       28.62       28.73       28.65       29.18       29.31    
        28.93       25.80       22.93       22.52       26.63       20.13       25.91    


  VOLUME BUDGET FOR ENTIRE MODEL AT END OF TIME STEP    1, STRESS PERIOD   1
  ---------------------------------------------------------------------------------------------------

     CUMULATIVE VOLUME      L**3       RATES FOR THIS TIME STEP      L**3/T          PACKAGE NAME    
     ------------------                 ------------------------                     ----------------

           IN:                                      IN:
           ---                                      ---
                 CHD =           1.0378                   CHD =       1.0378E-02     CHD_0           

            TOTAL IN =           1.0378              TOTAL IN =       1.0378E-02

          OUT:                                     OUT:
          ----                                     ----
                 CHD =           1.0378                   CHD =       1.0378E-02     CHD_0           

           TOTAL OUT =           1.0378             TOTAL OUT =       1.0378E-02

            IN - OUT =       1.1024E-05              IN - OUT =       1.1024E-07

 PERCENT DISCREPANCY =           0.00     PERCENT DISCREPANCY =           0.00




         TIME SUMMARY AT END OF TIME STEP    1 IN STRESS PERIOD    1
                    SECONDS     MINUTES      HOURS       DAYS        YEARS
                    -----------------------------------------------------------
   TIME STEP LENGTH  100.00      1.6667     2.77778E-02 1.15741E-03 3.16881E-06
 STRESS PERIOD TIME  100.00      1.6667     2.77778E-02 1.15741E-03 3.16881E-06
         TOTAL TIME  100.00      1.6667     2.77778E-02 1.15741E-03 3.16881E-06


end timestep

